68
 NO OUTCAR FOUND 
Pd   2.63658798670001   1.52199810069999   0.00477616849997
Pd   0.00269858320004   3.04279089539999   2.13477474999994
Pd   0.00996325490904   0.00230934654668   4.22177898140430
Pd   2.65674876886251   1.52911041599336   6.37355227066188
Pd   7.91226362570000   1.52140833949998   18.44575799159995
Pd   5.27771438430004   3.04281782969998   2.14709137859998
Pd   5.28879361273381   0.00219394027958   4.23144980216099
Pd   7.92934862098545   1.53281614574970   6.35570106835323
Pd   0.00103739680003   6.09002652450001   18.45672188369997
Pd   -2.63794265509998   7.61400597830000   2.16005968740002
Pd   -2.62673822330600   4.56921675822457   4.22314592357874
Pd   0.02059837855146   6.09663487553608   6.39872713233790
Pd   5.27384464769999   6.09040841820002   0.00500261909999
Pd   2.64074779870002   7.61168154310001   2.13603341800001
Pd   2.65018234723969   4.57259027044057   4.22702552450213
Pd   5.29575439016843   6.08785995097040   6.35953237966003
Cu   1.35343874729998   3.83054703369999   0.05483118090000
Cu   1.33213858510002   0.76781127800000   2.14386692830005
Cu   -1.31472405283152   2.27765913154504   4.22058050589665
Cu   1.30109471233165   3.78177357724820   6.29984981144203
Cu   -1.35044952960001   3.82720690470001   0.05425169959995
Cu   3.94506620690004   0.76646679929997   2.14545558889997
Cu   1.34418916723085   2.28261041305586   4.22644176469782
Cu   -1.27129887457718   3.79863859313715   6.29919217246053
Cu   0.00147012210000   1.47984148030002   0.05418549739995
Cu   2.63968310020000   3.03140247980001   2.13997621270007
Cu   2.64922647057432   0.01752495408908   4.23704151451128
Cu   0.01726499342350   1.56843985336980   6.30667940258303
Cu   6.63238004320001   3.82866362299998   0.06606122559997
Cu   6.60907836110001   0.76598857840000   2.14002815259996
Cu   3.95480121436592   2.27758179578460   4.23209037578816
Cu   6.57309280291427   3.78664315196419   6.31456977754973
Cu   3.92493768210004   3.82415430509999   0.06049675319997
Cu   9.22152052139998   0.76588438790000   2.13542065680003
Cu   6.61665282878102   2.27648707806541   4.22895301055294
Cu   4.00584672732340   3.79163740587815   6.30827499860926
Cu   5.27443420619999   1.47659549190000   0.06593125850005
Cu   7.91581179309999   3.02804160159997   2.13839300050005
Cu   7.91933123373779   0.00311197479337   4.23195152909424
Cu   5.29069198143096   1.56322397474029   6.31195876486864
Cu   -1.28524564619998   8.38928619340000   0.06442631199999
Cu   -1.30703365880005   5.33039170280003   2.14118003640005
Cu   6.58887800131363   6.84901814638998   4.23377250833540
Cu   -1.34562504035307   8.36246243147746   6.31143992706968
Cu   -3.98607649050000   8.39148277790001   0.06977252989999
Cu   1.30839637929996   5.33529080620001   2.13576440370002
Cu   -1.29842141824686   6.84639551496957   4.23593176224446
Cu   -3.90765310962283   8.35977427074821   6.31389829076062
Cu   -2.63377646610003   6.05377987720001   0.06611424709994
Cu   0.00416099730000   7.60191654770001   2.14128244140004
Cu   0.00903353432462   4.58310784331958   4.22662060397383
Cu   -2.61414756619583   6.12353981659226   6.30568196235758
Cu   3.99328256029997   8.39330527290002   0.05422095300002
Cu   3.96910054479996   5.33423754710000   2.14043750000005
Cu   1.30934714940729   6.84077511251258   4.21400554673802
Cu   3.96847890593436   8.37389209780767   6.30916064911763
Cu   1.28425696890000   8.39095683059999   0.05499689670001
Cu   6.58182107590002   5.33653539090002   2.14420628039998
Cu   3.96831118511015   6.84705691884917   4.23291620681063
Cu   1.37707027828759   8.36434497065944   6.34455906591700
Cu   2.63405778339995   6.04772851050002   0.05538370459999
Cu   5.27563461259999   7.59737557270003   2.14387921409996
Cu   5.28518099658090   4.58023086261224   4.23048356942370
Cu   2.66246658496055   6.13599560748794   6.33975343796246
C   0.66614712296994   4.88622159166516   9.69576258289215
O   0.04830352853275   5.86527867031534   9.90436450788386
O   1.28458838656995   3.90375089846004   9.49606303029657
H   1.39833077989557   6.88714936412871   7.27767909860244
68
 NO OUTCAR FOUND 
Pd   2.63658798670001   1.52199810069999   0.00477616849997
Pd   0.00269858320004   3.04279089539999   2.13477474999994
Pd   0.00923034419604   0.00234986545629   4.22072816327521
Pd   2.65672571890323   1.52565466539763   6.37031743689334
Pd   7.91226362569999   1.52140833949998   18.44575799159995
Pd   5.27771438430004   3.04281782969998   2.14709137859998
Pd   5.28705860924106   0.00188487057739   4.22999954362186
Pd   7.92736723719981   1.53191532974980   6.35726019324452
Pd   0.00103739680003   6.09002652450001   18.45672188369997
Pd   -2.63794265509998   7.61400597830000   2.16005968740003
Pd   -2.62783900341487   4.56942935262873   4.22187479349596
Pd   0.01594019711330   6.10057757908594   6.39974627081276
Pd   5.27384464769999   6.09040841820002   0.00500261909999
Pd   2.64074779870002   7.61168154310001   2.13603341800001
Pd   2.64728282317782   4.57105627505061   4.22825476109777
Pd   5.29237834174265   6.08827965932722   6.36078486043503
Cu   1.35343874729998   3.83054703369999   0.05483118090000
Cu   1.33213858510002   0.76781127800000   2.14386692830004
Cu   9.23171223410245   2.27813667483846   4.22100511992608
Cu   1.30407554794432   3.78449157010933   6.31456776963518
Cu   -1.35044952960001   3.82720690470001   0.05425169959995
Cu   3.94506620690004   0.76646679929997   2.14545558889997
Cu   1.34047903780486   2.28591085278751   4.22978872290772
Cu   -1.27666031248996   3.79775625996078   6.29636845390540
Cu   0.00147012210000   1.47984148030002   0.05418549739994
Cu   2.63968310020000   3.03140247980002   2.13997621270006
Cu   2.64709926323397   0.01782593471258   4.23552430822666
Cu   0.01422571894543   1.56337511862158   6.30490639774909
Cu   6.63238004320001   3.82866362299998   0.06606122559997
Cu   6.60907836110001   0.76598857840000   2.14002815259995
Cu   3.95360446349584   2.27794740734549   4.23093386380909
Cu   6.57195445216257   3.78728942344343   6.31347543477167
Cu   3.92493768210004   3.82415430509999   0.06049675319997
Cu   9.22152052139998   0.76588438790000   2.13542065680003
Cu   6.61593009927502   2.27646937301756   4.22835112783585
Cu   4.00764349119913   3.79023087314743   6.30662484752862
Cu   5.27443420619999   1.47659549190000   0.06593125850005
Cu   7.91581179309999   3.02804160159997   2.13839300050004
Cu   7.91891028184302   0.00431646638897   4.23052571137420
Cu   5.29039311867080   1.56352623290977   6.31110877309336
Cu   -1.28524564619997   8.38928619340000   0.06442631199999
Cu   -1.30703365880004   5.33039170280003   2.14118003640005
Cu   6.58798802218732   6.84868759158369   4.23341734477950
Cu   -1.34763779495871   8.36248577877048   6.30917698498461
Cu   -3.98607649050000   8.39148277790001   0.06977252989999
Cu   1.30839637929996   5.33529080620002   2.13576440370002
Cu   -1.29648393210506   6.84427612616212   4.23525766926404
Cu   -3.91039362388883   8.35879099825030   6.31301795101001
Cu   -2.63377646610003   6.05377987720001   0.06611424709994
Cu   0.00416099730001   7.60191654770001   2.14128244140003
Cu   0.00965194834479   4.58350575639990   4.22912521339138
Cu   -2.61944314790344   6.12466240532326   6.30475432147452
Cu   3.99328256029997   8.39330527290002   0.05422095300002
Cu   3.96910054479996   5.33423754710001   2.14043750000006
Cu   1.30698994323730   6.84040439542829   4.21519879095746
Cu   3.96319124238729   8.37243207233646   6.30868388639273
Cu   1.28425696890000   8.39095683059998   0.05499689670001
Cu   6.58182107590001   5.33653539090002   2.14420628039997
Cu   3.96818766401776   6.84659952654430   4.23108140241071
Cu   1.37473504074078   8.36617133162336   6.33769367096834
Cu   2.63405778339995   6.04772851050002   0.05538370459999
Cu   5.27563461259999   7.59737557270003   2.14387921409996
Cu   5.28349388102537   4.58099885747441   4.22976846508612
Cu   2.66105345527632   6.14004965899104   6.33068296803702
C   0.66978843929152   4.87703170246543   9.60157554349414
O   0.06240484447893   5.86591764977954   9.71518750872675
O   1.26892495856075   3.89345672313938   9.33919422430352
H   1.30700435381688   6.58283582547625   7.68699684081372
68
 NO OUTCAR FOUND 
Pd   2.63658798670001   1.52199810069999   0.00477616849997
Pd   0.00269858320004   3.04279089539999   2.13477474999994
Pd   0.00849743348301   0.00239038436586   4.21967734514611
Pd   2.65670266894396   1.52219891480196   6.36708260312481
Pd   7.91226362569999   1.52140833949998   18.44575799159995
Pd   5.27771438430004   3.04281782969998   2.14709137859998
Pd   5.28532360574833   0.00157580087519   4.22854928508262
Pd   7.92538585341416   1.53101451374990   6.35881931813585
Pd   0.00103739680003   6.09002652450001   18.45672188369997
Pd   -2.63794265509998   7.61400597830000   2.16005968740003
Pd   -2.62893978352376   4.56964194703284   4.22060366341318
Pd   0.01128201567516   6.10452028263581   6.40076540928765
Pd   5.27384464769999   6.09040841820002   0.00500261909999
Pd   2.64074779870002   7.61168154310001   2.13603341800001
Pd   2.64438329911592   4.56952227966067   4.22948399769337
Pd   5.28900229331688   6.08869936768404   6.36203734121009
Cu   1.35343874729998   3.83054703369999   0.05483118090000
Cu   1.33213858510002   0.76781127800000   2.14386692830004
Cu   9.23054872853644   2.27861421813188   4.22142973395556
Cu   1.30705638355699   3.78720956297044   6.32928572782831
Cu   -1.35044952960001   3.82720690470001   0.05425169959995
Cu   3.94506620690004   0.76646679929997   2.14545558889997
Cu   1.33676890837892   2.28921129251918   4.23313568111764
Cu   -1.28202175040273   3.79687392678442   6.29354473535033
Cu   0.00147012210000   1.47984148030002   0.05418549739994
Cu   2.63968310020000   3.03140247980002   2.13997621270006
Cu   2.64497205589363   0.01812691533610   4.23400710194210
Cu   0.01118644446737   1.55831038387338   6.30313339291513
Cu   6.63238004320001   3.82866362299998   0.06606122559997
Cu   6.60907836110001   0.76598857840000   2.14002815259995
Cu   3.95240771262574   2.27831301890634   4.22977735182998
Cu   6.57081610141084   3.78793569492265   6.31238109199353
Cu   3.92493768210004   3.82415430509999   0.06049675319997
Cu   9.22152052139998   0.76588438790000   2.13542065680003
Cu   6.61520736976898   2.27645166796976   4.22774924511879
Cu   4.00944025507487   3.78882434041673   6.30497469644805
Cu   5.27443420619999   1.47659549190000   0.06593125850005
Cu   7.91581179309999   3.02804160159997   2.13839300050004
Cu   7.91848932994828   0.00552095798452   4.22909989365411
Cu   5.29009425591061   1.56382849107926   6.31025878131813
Cu   -1.28524564619997   8.38928619340000   0.06442631199999
Cu   -1.30703365880004   5.33039170280003   2.14118003640005
Cu   6.58709804306103   6.84835703677745   4.23306218122361
Cu   -1.34965054956436   8.36250912606349   6.30691404289959
Cu   -3.98607649050000   8.39148277790001   0.06977252989999
Cu   1.30839637929996   5.33529080620002   2.13576440370002
Cu   -1.29454644596327   6.84215673735468   4.23458357628368
Cu   -3.91313413815484   8.35780772575243   6.31213761125930
Cu   -2.63377646610003   6.05377987720001   0.06611424709994
Cu   0.00416099730001   7.60191654770001   2.14128244140003
Cu   0.01027036236496   4.58390366948021   4.23162982280896
Cu   -2.62473872961108   6.12578499405425   6.30382668059143
Cu   3.99328256029997   8.39330527290002   0.05422095300002
Cu   3.96910054479996   5.33423754710001   2.14043750000006
Cu   1.30463273706732   6.84003367834393   4.21639203517684
Cu   3.95790357884019   8.37097204686525   6.30820712366779
Cu   1.28425696890000   8.39095683059998   0.05499689670001
Cu   6.58182107590001   5.33653539090002   2.14420628039997
Cu   3.96806414292535   6.84614213423941   4.22924659801080
Cu   1.37239980319400   8.36799769258727   6.33082827601969
Cu   2.63405778339995   6.04772851050002   0.05538370459999
Cu   5.27563461259999   7.59737557270003   2.14387921409996
Cu   5.28180676546990   4.58176685233653   4.22905336074852
Cu   2.65964032559210   6.14410371049416   6.32161249811156
C   0.67342975561309   4.86784181326567   9.50738850409615
O   0.07650616042512   5.86655662924372   9.52601050956978
O   1.25326153055151   3.88316254781873   9.18232541831041
H   1.21567792773818   6.27852228682381   8.09631458302505
68
 NO OUTCAR FOUND 
Pd   2.63658798670001   1.52199810069999   0.00477616849997
Pd   0.00269858320004   3.04279089539999   2.13477474999994
Pd   0.00776452276997   0.00243090327544   4.21862652701702
Pd   2.65667961898471   1.51874316420628   6.36384776935628
Pd   7.91226362569999   1.52140833949998   18.44575799159995
Pd   5.27771438430004   3.04281782969998   2.14709137859998
Pd   5.28358860225560   0.00126673117300   4.22709902654339
Pd   7.92340446962852   1.53011369774999   6.36037844302718
Pd   0.00103739680003   6.09002652450001   18.45672188369997
Pd   -2.63794265509998   7.61400597830000   2.16005968740003
Pd   -2.63004056363265   4.56985454143694   4.21933253333039
Pd   0.00662383423702   6.10846298618569   6.40178454776254
Pd   5.27384464769999   6.09040841820002   0.00500261909999
Pd   2.64074779870002   7.61168154310001   2.13603341800001
Pd   2.64148377505403   4.56798828427072   4.23071323428898
Pd   5.28562624489112   6.08911907604086   6.36328982198512
Cu   1.35343874729998   3.83054703369999   0.05483118090000
Cu   1.33213858510002   0.76781127800000   2.14386692830004
Cu   9.22938522297041   2.27909176142529   4.22185434798506
Cu   1.31003721916965   3.78992755583155   6.34400368602142
Cu   -1.35044952960001   3.82720690470001   0.05425169959995
Cu   3.94506620690004   0.76646679929997   2.14545558889997
Cu   1.33305877895298   2.29251173225087   4.23648263932754
Cu   -1.28738318831550   3.79599159360806   6.29072101679527
Cu   0.00147012210000   1.47984148030002   0.05418549739994
Cu   2.63968310020000   3.03140247980002   2.13997621270006
Cu   2.64284484855327   0.01842789595961   4.23248989565752
Cu   0.00814716998931   1.55324564912519   6.30136038808116
Cu   6.63238004320001   3.82866362299998   0.06606122559997
Cu   6.60907836110001   0.76598857840000   2.14002815259995
Cu   3.95121096175566   2.27867863046719   4.22862083985089
Cu   6.56967775065912   3.78858196640186   6.31128674921538
Cu   3.92493768210004   3.82415430509999   0.06049675319997
Cu   9.22152052139998   0.76588438790000   2.13542065680003
Cu   6.61448464026297   2.27643396292195   4.22714736240172
Cu   4.01123701895060   3.78741780768603   6.30332454536747
Cu   5.27443420619999   1.47659549190000   0.06593125850005
Cu   7.91581179309999   3.02804160159997   2.13839300050004
Cu   7.91806837805355   0.00672544958008   4.22767407593404
Cu   5.28979539315043   1.56413074924875   6.30940878954291
Cu   -1.28524564619997   8.38928619340000   0.06442631199999
Cu   -1.30703365880004   5.33039170280003   2.14118003640005
Cu   6.58620806393474   6.84802648197121   4.23270701766772
Cu   -1.35166330417000   8.36253247335651   6.30465110081457
Cu   -3.98607649050000   8.39148277790001   0.06977252989999
Cu   1.30839637929996   5.33529080620002   2.13576440370002
Cu   -1.29260895982148   6.84003734854725   4.23390948330330
Cu   -3.91587465242085   8.35682445325455   6.31125727150861
Cu   -2.63377646610003   6.05377987720001   0.06611424709994
Cu   0.00416099730001   7.60191654770001   2.14128244140003
Cu   0.01088877638512   4.58430158256053   4.23413443222653
Cu   -2.63003431131871   6.12690758278524   6.30289903970831
Cu   3.99328256029997   8.39330527290002   0.05422095300002
Cu   3.96910054479996   5.33423754710001   2.14043750000006
Cu   1.30227553089733   6.83966296125959   4.21758527939621
Cu   3.95261591529308   8.36951202139404   6.30773036094286
Cu   1.28425696890000   8.39095683059998   0.05499689670001
Cu   6.58182107590001   5.33653539090002   2.14420628039997
Cu   3.96794062183294   6.84568474193451   4.22741179361087
Cu   1.37006456564723   8.36982405355117   6.32396288107105
Cu   2.63405778339995   6.04772851050002   0.05538370459999
Cu   5.27563461259999   7.59737557270003   2.14387921409996
Cu   5.28011964991442   4.58253484719866   4.22833825641090
Cu   2.65822719590787   6.14815776199729   6.31254202818613
C   0.67707107193467   4.85865192406592   9.41320146469816
O   0.09060747637130   5.86719560870791   9.33683351041279
O   1.23759810254227   3.87286837249810   9.02545661231727
H   1.12435150165947   5.97420874817137   8.50563232523640
68
 NO OUTCAR FOUND 
Pd   2.63658798670001   1.52199810069999   0.00477616849997
Pd   0.00269858320004   3.04279089539999   2.13477474999994
Pd   0.00703161205693   0.00247142218502   4.21757570888792
Pd   2.65665656902545   1.51528741361060   6.36061293558774
Pd   7.91226362569999   1.52140833949998   18.44575799159995
Pd   5.27771438430004   3.04281782969998   2.14709137859998
Pd   5.28185359876287   0.00095766147080   4.22564876800415
Pd   7.92142308584286   1.52921288175010   6.36193756791850
Pd   0.00103739680003   6.09002652450001   18.45672188369997
Pd   -2.63794265509998   7.61400597830000   2.16005968740003
Pd   -2.63114134374154   4.57006713584106   4.21806140324761
Pd   0.00196565279887   6.11240568973557   6.40280368623741
Pd   5.27384464769999   6.09040841820002   0.00500261909999
Pd   2.64074779870002   7.61168154310001   2.13603341800001
Pd   2.63858425099213   4.56645428888078   4.23194247088458
Pd   5.28225019646536   6.08953878439769   6.36454230276015
Cu   1.35343874729998   3.83054703369999   0.05483118090000
Cu   1.33213858510002   0.76781127800000   2.14386692830004
Cu   9.22822171740439   2.27956930471870   4.22227896201454
Cu   1.31301805478233   3.79264554869266   6.35872164421454
Cu   -1.35044952960001   3.82720690470001   0.05425169959995
Cu   3.94506620690004   0.76646679929997   2.14545558889997
Cu   1.32934864952703   2.29581217198256   4.23982959753746
Cu   -1.29274462622827   3.79510926043170   6.28789729824021
Cu   0.00147012210000   1.47984148030002   0.05418549739994
Cu   2.63968310020000   3.03140247980002   2.13997621270006
Cu   2.64071764121293   0.01872887658312   4.23097268937296
Cu   0.00510789551125   1.54818091437699   6.29958738324718
Cu   6.63238004320001   3.82866362299998   0.06606122559997
Cu   6.60907836110001   0.76598857840000   2.14002815259995
Cu   3.95001421088557   2.27904424202804   4.22746432787177
Cu   6.56853939990741   3.78922823788107   6.31019240643723
Cu   3.92493768210004   3.82415430509999   0.06049675319997
Cu   9.22152052139998   0.76588438790000   2.13542065680003
Cu   6.61376191075694   2.27641625787415   4.22654547968466
Cu   4.01303378282633   3.78601127495532   6.30167439428690
Cu   5.27443420619999   1.47659549190000   0.06593125850005
Cu   7.91581179309999   3.02804160159997   2.13839300050004
Cu   7.91764742615881   0.00792994117564   4.22624825821394
Cu   5.28949653039023   1.56443300741824   6.30855879776769
Cu   -1.28524564619997   8.38928619340000   0.06442631199999
Cu   -1.30703365880004   5.33039170280003   2.14118003640005
Cu   6.58531808480844   6.84769592716497   4.23235185411183
Cu   -1.35367605877565   8.36255582064952   6.30238815872956
Cu   -3.98607649050000   8.39148277790001   0.06977252989999
Cu   1.30839637929996   5.33529080620002   2.13576440370002
Cu   -1.29067147367970   6.83791795973981   4.23323539032291
Cu   -3.91861516668686   8.35584118075668   6.31037693175790
Cu   -2.63377646610003   6.05377987720001   0.06611424709994
Cu   0.00416099730001   7.60191654770001   2.14128244140003
Cu   0.01150719040527   4.58469949564086   4.23663904164412
Cu   -2.63532989302635   6.12803017151623   6.30197139882522
Cu   3.99328256029997   8.39330527290002   0.05422095300002
Cu   3.96910054479996   5.33423754710001   2.14043750000006
Cu   1.29991832472736   6.83929224417523   4.21877852361559
Cu   3.94732825174597   8.36805199592284   6.30725359821793
Cu   1.28425696890000   8.39095683059998   0.05499689670001
Cu   6.58182107590001   5.33653539090002   2.14420628039997
Cu   3.96781710074052   6.84522734962961   4.22557698921096
Cu   1.36772932810045   8.37165041451508   6.31709748612238
Cu   2.63405778339995   6.04772851050002   0.05538370459999
Cu   5.27563461259999   7.59737557270003   2.14387921409996
Cu   5.27843253435895   4.58330284206078   4.22762315207331
Cu   2.65681406622364   6.15221181350041   6.30347155826067
C   0.68071238825625   4.84946203486617   9.31901442530017
O   0.10470879231749   5.86783458817209   9.14765651125582
O   1.22193467453304   3.86257419717745   8.86858780632416
H   1.03302507558077   5.66989520951893   8.91495006744775
68
 NO OUTCAR FOUND 
Pd   2.63658798670001   1.52199810069999   0.00477616849997
Pd   0.00269858320004   3.04279089539999   2.13477474999994
Pd   0.00629870134389   0.00251194109459   4.21652489075883
Pd   2.65663351906619   1.51183166301492   6.35737810181921
Pd   7.91226362569999   1.52140833949998   18.44575799159995
Pd   5.27771438430004   3.04281782969998   2.14709137859998
Pd   5.28011859527013   0.00064859176861   4.22419850946494
Pd   7.91944170205721   1.52831206575020   6.36349669280981
Pd   0.00103739680003   6.09002652450001   18.45672188369997
Pd   -2.63794265509998   7.61400597830000   2.16005968740003
Pd   -2.63224212385044   4.57027973024516   4.21679027316485
Pd   -0.00269252863927   6.11634839328544   6.40382282471230
Pd   5.27384464769999   6.09040841820002   0.00500261909999
Pd   2.64074779870002   7.61168154310001   2.13603341800001
Pd   2.63568472693024   4.56492029349084   4.23317170748020
Pd   5.27887414803961   6.08995849275451   6.36579478353519
Cu   1.35343874729998   3.83054703369999   0.05483118090000
Cu   1.33213858510002   0.76781127800000   2.14386692830004
Cu   9.22705821183838   2.28004684801211   4.22270357604404
Cu   1.31599889039500   3.79536354155376   6.37343960240767
Cu   -1.35044952960001   3.82720690470001   0.05425169959995
Cu   3.94506620690004   0.76646679929997   2.14545558889997
Cu   1.32563852010110   2.29911261171424   4.24317655574738
Cu   -1.29810606414104   3.79422692725534   6.28507357968516
Cu   0.00147012210000   1.47984148030002   0.05418549739994
Cu   2.63968310020000   3.03140247980002   2.13997621270006
Cu   2.63859043387257   0.01902985720664   4.22945548308840
Cu   0.00206862103319   1.54311617962879   6.29781437841321
Cu   6.63238004320001   3.82866362299998   0.06606122559997
Cu   6.60907836110001   0.76598857840000   2.14002815259995
Cu   3.94881746001548   2.27940985358889   4.22630781589268
Cu   6.56740104915569   3.78987450936028   6.30909806365910
Cu   3.92493768210004   3.82415430509999   0.06049675319997
Cu   9.22152052139998   0.76588438790000   2.13542065680003
Cu   6.61303918125092   2.27639855282635   4.22594359696758
Cu   4.01483054670206   3.78460474222462   6.30002424320632
Cu   5.27443420619999   1.47659549190000   0.06593125850005
Cu   7.91581179309999   3.02804160159997   2.13839300050004
Cu   7.91722647426407   0.00913443277120   4.22482244049385
Cu   5.28919766763005   1.56473526558773   6.30770880599244
Cu   -1.28524564619997   8.38928619340000   0.06442631199999
Cu   -1.30703365880004   5.33039170280003   2.14118003640005
Cu   6.58442810568215   6.84736537235874   4.23199669055595
Cu   -1.35568881338129   8.36257916794254   6.30012521664456
Cu   -3.98607649050000   8.39148277790001   0.06977252989999
Cu   1.30839637929996   5.33529080620002   2.13576440370002
Cu   -1.28873398753790   6.83579857093237   4.23256129734255
Cu   -3.92135568095287   8.35485790825880   6.30949659200721
Cu   -2.63377646610003   6.05377987720001   0.06611424709994
Cu   0.00416099730001   7.60191654770001   2.14128244140003
Cu   0.01212560442544   4.58509740872117   4.23914365106169
Cu   -2.64062547473399   6.12915276024723   6.30104375794211
Cu   3.99328256029997   8.39330527290002   0.05422095300002
Cu   3.96910054479996   5.33423754710001   2.14043750000006
Cu   1.29756111855737   6.83892152709088   4.21997176783497
Cu   3.94204058819886   8.36659197045162   6.30677683549301
Cu   1.28425696890000   8.39095683059998   0.05499689670001
Cu   6.58182107590001   5.33653539090002   2.14420628039997
Cu   3.96769357964810   6.84476995732471   4.22374218481103
Cu   1.36539409055368   8.37347677547898   6.31023209117374
Cu   2.63405778339995   6.04772851050002   0.05538370459999
Cu   5.27563461259999   7.59737557270003   2.14387921409996
Cu   5.27674541880349   4.58407083692291   4.22690804773569
Cu   2.65540093653941   6.15626586500353   6.29440108833523
C   0.68435370457783   4.84027214566641   9.22482738590218
O   0.11881010826368   5.86847356763627   8.95847951209883
O   1.20627124652381   3.85228002185680   8.71171900033102
H   0.94169864950206   5.36558167086649   9.32426780965910
68
 NO OUTCAR FOUND 
Pd   2.63658798670001   1.52199810069999   0.00477616849997
Pd   0.00269858320004   3.04279089539999   2.13477474999994
Pd   0.00556579063085   0.00255246000417   4.21547407262973
Pd   2.65661046910692   1.50837591241924   6.35414326805067
Pd   7.91226362569999   1.52140833949998   18.44575799159995
Pd   5.27771438430004   3.04281782969998   2.14709137859998
Pd   5.27838359177741   0.00033952206641   4.22274825092570
Pd   7.91746031827157   1.52741124975029   6.36505581770114
Pd   0.00103739680003   6.09002652450001   18.45672188369997
Pd   -2.63794265509998   7.61400597830000   2.16005968740003
Pd   -2.63334290395933   4.57049232464928   4.21551914308207
Pd   -0.00735071007741   6.12029109683532   6.40484196318717
Pd   5.27384464769999   6.09040841820002   0.00500261909999
Pd   2.64074779870002   7.61168154310001   2.13603341800001
Pd   2.63278520286834   4.56338629810090   4.23440094407579
Pd   5.27549809961385   6.09037820111133   6.36704726431022
Cu   1.35343874729998   3.83054703369999   0.05483118090000
Cu   1.33213858510002   0.76781127800000   2.14386692830004
Cu   9.22589470627235   2.28052439130552   4.22312819007354
Cu   1.31897972600766   3.79808153441487   6.38815756060079
Cu   -1.35044952960001   3.82720690470001   0.05425169959995
Cu   3.94506620690004   0.76646679929997   2.14545558889997
Cu   1.32192839067514   2.30241305144592   4.24652351395730
Cu   -1.30346750205380   3.79334459407897   6.28224986113010
Cu   0.00147012210000   1.47984148030002   0.05418549739994
Cu   2.63968310020000   3.03140247980002   2.13997621270006
Cu   2.63646322653223   0.01933083783015   4.22793827680383
Cu   -0.00097065344487   1.53805144488060   6.29604137357923
Cu   6.63238004320001   3.82866362299998   0.06606122559997
Cu   6.60907836110001   0.76598857840000   2.14002815259995
Cu   3.94762070914539   2.27977546514973   4.22515130391356
Cu   6.56626269840397   3.79052078083950   6.30800372088094
Cu   3.92493768210004   3.82415430509999   0.06049675319997
Cu   9.22152052139998   0.76588438790000   2.13542065680003
Cu   6.61231645174490   2.27638084777854   4.22534171425052
Cu   4.01662731057779   3.78319820949392   6.29837409212575
Cu   5.27443420619999   1.47659549190000   0.06593125850005
Cu   7.91581179309999   3.02804160159997   2.13839300050004
Cu   7.91680552236934   0.01033892436676   4.22339662277376
Cu   5.28889880486986   1.56503752375722   6.30685881421722
Cu   -1.28524564619997   8.38928619340000   0.06442631199999
Cu   -1.30703365880004   5.33039170280003   2.14118003640005
Cu   6.58353812655587   6.84703481755250   4.23164152700006
Cu   -1.35770156798694   8.36260251523556   6.29786227455954
Cu   -3.98607649050000   8.39148277790001   0.06977252989999
Cu   1.30839637929996   5.33529080620002   2.13576440370002
Cu   -1.28679650139612   6.83367918212494   4.23188720436216
Cu   -3.92409619521889   8.35387463576093   6.30861625225650
Cu   -2.63377646610003   6.05377987720001   0.06611424709994
Cu   0.00416099730001   7.60191654770001   2.14128244140003
Cu   0.01274401844560   4.58549532180149   4.24164826047928
Cu   -2.64592105644163   6.13027534897822   6.30011611705901
Cu   3.99328256029997   8.39330527290002   0.05422095300002
Cu   3.96910054479996   5.33423754710001   2.14043750000006
Cu   1.29520391238739   6.83855081000652   4.22116501205434
Cu   3.93675292465176   8.36513194498042   6.30630007276806
Cu   1.28425696890000   8.39095683059998   0.05499689670001
Cu   6.58182107590001   5.33653539090002   2.14420628039997
Cu   3.96757005855570   6.84431256501982   4.22190738041110
Cu   1.36305885300690   8.37530313644288   6.30336669622509
Cu   2.63405778339995   6.04772851050002   0.05538370459999
Cu   5.27563461259999   7.59737557270003   2.14387921409996
Cu   5.27505830324802   4.58483883178503   4.22619294339809
Cu   2.65398780685519   6.16031991650665   6.28533061840977
C   0.68799502089941   4.83108225646666   9.13064034650419
O   0.13291142420987   5.86911254710046   8.76930251294186
O   1.19060781851456   3.84198584653616   8.55485019433791
H   0.85037222342336   5.06126813221405   9.73358555187045
68
 NO OUTCAR FOUND 
Pd   2.63658798670001   1.52199810069999   0.00477616849997
Pd   0.00269858320004   3.04279089539999   2.13477474999994
Pd   0.00483287991796   0.00259297891379   4.21442325450051
Pd   2.65658741914757   1.50492016182355   6.35090843428212
Pd   7.91226362570000   1.52140833949998   18.44575799159995
Pd   5.27771438430004   3.04281782969998   2.14709137859998
Pd   5.27664858828462   0.00003045236424   4.22129799238660
Pd   7.91547893448591   1.52651043375040   6.36661494259221
Pd   0.00103739680003   6.09002652450001   18.45672188369997
Pd   -2.63794265509998   7.61400597830000   2.16005968740002
Pd   -2.63444368406823   4.57070491905354   4.21424801299925
Pd   -0.01200889151580   6.12423380038526   6.40586110166209
Pd   5.27384464769999   6.09040841820002   0.00500261909999
Pd   2.64074779870002   7.61168154310001   2.13603341800001
Pd   2.62988567880657   4.56185230271087   4.23563018067142
Pd   5.27212205118791   6.09079790946832   6.36829974508505
Cu   1.35343874729998   3.83054703369999   0.05483118090000
Cu   1.33213858510002   0.76781127800000   2.14386692830005
Cu   9.22473120070659   2.28100193459890   4.22355280410293
Cu   1.32196056162032   3.80079952727602   6.40287551879364
Cu   -1.35044952960001   3.82720690470001   0.05425169959995
Cu   3.94506620690004   0.76646679929997   2.14545558889997
Cu   1.31821826124903   2.30571349117760   4.24987047216712
Cu   -1.30882893996653   3.79246226090274   6.27942614257469
Cu   0.00147012210000   1.47984148030002   0.05418549739995
Cu   2.63968310020000   3.03140247980001   2.13997621270007
Cu   2.63433601919186   0.01963181845374   4.22642107051919
Cu   -0.00400992792298   1.53298671013251   6.29426836874561
Cu   6.63238004320001   3.82866362299998   0.06606122559997
Cu   6.60907836110001   0.76598857840000   2.14002815259996
Cu   3.94642395827538   2.28014107671073   4.22399479193461
Cu   6.56512434765211   3.79116705231890   6.30690937810282
Cu   3.92493768210004   3.82415430509999   0.06049675319997
Cu   9.22152052139998   0.76588438790000   2.13542065680003
Cu   6.61159372223875   2.27636314273064   4.22473983153362
Cu   4.01842407445354   3.78179167676335   6.29672394104523
Cu   5.27443420619999   1.47659549190000   0.06593125850005
Cu   7.91581179309999   3.02804160159997   2.13839300050005
Cu   7.91638457047442   0.01154341596236   4.22197080505367
Cu   5.28859994210952   1.56533978192687   6.30600882244171
Cu   -1.28524564619998   8.38928619340000   0.06442631199999
Cu   -1.30703365880005   5.33039170280003   2.14118003640005
Cu   6.58264814742960   6.84670426274612   4.23128636344433
Cu   -1.35971432259284   8.36262586252879   6.29559933247428
Cu   -3.98607649050000   8.39148277790001   0.06977252989999
Cu   1.30839637929996   5.33529080620001   2.13576440370002
Cu   -1.28485901525428   6.83155979331760   4.23121311138170
Cu   -3.92683670948475   8.35289136326301   6.30773591250593
Cu   -2.63377646610003   6.05377987720001   0.06611424709994
Cu   0.00416099730000   7.60191654770001   2.14128244140004
Cu   0.01336243246579   4.58589323488174   4.24415286989680
Cu   -2.65121663814917   6.13139793770914   6.29918847617625
Cu   3.99328256029997   8.39330527290002   0.05422095300002
Cu   3.96910054479996   5.33423754710000   2.14043750000005
Cu   1.29284670621735   6.83818009292232   4.22235825627379
Cu   3.93146526110450   8.36367191950938   6.30582331004318
Cu   1.28425696890000   8.39095683059999   0.05499689670001
Cu   6.58182107590002   5.33653539090002   2.14420628039998
Cu   3.96744653746342   6.84385517271499   4.22007257601085
Cu   1.36072361545992   8.37712949740696   6.29650130127604
Cu   2.63405778339995   6.04772851050002   0.05538370459999
Cu   5.27563461259999   7.59737557270003   2.14387921409996
Cu   5.27337118769241   4.58560682664732   4.22547783906072
Cu   2.65257467717091   6.16437396800989   6.27626014848423
C   0.69163633722074   4.82189236726707   9.03645330710646
O   0.14701274015601   5.86975152656458   8.58012551378461
O   1.17494439050538   3.83169167121548   8.39798138834489
H   0.75904579734484   4.75695459356162   10.14290329408149
